{
   "completed_at" : "20200703T193536Z",
   "completed_status" : "Success",
   "created_at" : "2020-07-03 13:29:33 -0600",
   "current_step" : 27,
   "description" : "Autogenerated 18",
   "eplusout_err" : "Program Version,EnergyPlus, Version 9.2.0-921312fa1d, YMD=2020.07.03 13:31,\n   ** Warning ** ProcessScheduleInput: Schedule:Constant=\"ALWAYS OFF DISCRETE\", Blank Schedule Type Limits Name input -- will not be validated.\n   ** Warning ** ProcessScheduleInput: Schedule:Constant=\"ALWAYS ON CONTINUOUS\", Blank Schedule Type Limits Name input -- will not be validated.\n   ************* Beginning Zone Sizing Calculations\n   ** Warning ** CheckUsedConstructions: There are 7 nominally unused constructions in input.\n   **   ~~~   ** For explicit details on each unused construction, use Output:Diagnostics,DisplayExtraWarnings;\n   ** Warning ** GetInternalHeatGains: People=\"OFFICE WHOLEBUILDING - SM OFFICE PEOPLE\" has comfort related schedules but no thermal comfort model selected.\n   **   ~~~   ** If schedules are specified for air velocity, clothing insulation, and/or work efficiency but no thermal comfort\n   **   ~~~   ** thermal comfort model is selected, the schedules will be listed as unused schedules in the .err file.\n   **   ~~~   ** To avoid these errors, select a valid thermal comfort model or eliminate these schedules in the PEOPLE input.\n   ** Warning ** GetInternalHeatGains: People=\"OFFICE WHOLEBUILDING - SM OFFICE PEOPLE\" has comfort related schedules but no thermal comfort model selected.\n   **   ~~~   ** If schedules are specified for air velocity, clothing insulation, and/or work efficiency but no thermal comfort\n   **   ~~~   ** thermal comfort model is selected, the schedules will be listed as unused schedules in the .err file.\n   **   ~~~   ** To avoid these errors, select a valid thermal comfort model or eliminate these schedules in the PEOPLE input.\n   ** Warning ** GetInternalHeatGains: People=\"OFFICE WHOLEBUILDING - SM OFFICE PEOPLE\" has comfort related schedules but no thermal comfort model selected.\n   **   ~~~   ** If schedules are specified for air velocity, clothing insulation, and/or work efficiency but no thermal comfort\n   **   ~~~   ** thermal comfort model is selected, the schedules will be listed as unused schedules in the .err file.\n   **   ~~~   ** To avoid these errors, select a valid thermal comfort model or eliminate these schedules in the PEOPLE input.\n   ** Warning ** GetInternalHeatGains: People=\"OFFICE WHOLEBUILDING - SM OFFICE PEOPLE\" has comfort related schedules but no thermal comfort model selected.\n   **   ~~~   ** If schedules are specified for air velocity, clothing insulation, and/or work efficiency but no thermal comfort\n   **   ~~~   ** thermal comfort model is selected, the schedules will be listed as unused schedules in the .err file.\n   **   ~~~   ** To avoid these errors, select a valid thermal comfort model or eliminate these schedules in the PEOPLE input.\n   ** Warning ** GetInternalHeatGains: People=\"OFFICE WHOLEBUILDING - SM OFFICE PEOPLE\" has comfort related schedules but no thermal comfort model selected.\n   **   ~~~   ** If schedules are specified for air velocity, clothing insulation, and/or work efficiency but no thermal comfort\n   **   ~~~   ** thermal comfort model is selected, the schedules will be listed as unused schedules in the .err file.\n   **   ~~~   ** To avoid these errors, select a valid thermal comfort model or eliminate these schedules in the PEOPLE input.\n   ** Warning ** GetDaylightingControls: Fraction of Zone controlled by the Daylighting reference points is < 1.0.\n   **   ~~~   ** ..discovered in \"Daylighting:Controls\" for Zone=\"PERIMETER_ZN_1 ZN\", only 0.12 of the zone is controlled.\n   ** Warning ** GetDaylightingControls: Fraction of Zone controlled by the Daylighting reference points is < 1.0.\n   **   ~~~   ** ..discovered in \"Daylighting:Controls\" for Zone=\"PERIMETER_ZN_2 ZN\", only 0.21 of the zone is controlled.\n   ** Warning ** GetDaylightingControls: Fraction of Zone controlled by the Daylighting reference points is < 1.0.\n   **   ~~~   ** ..discovered in \"Daylighting:Controls\" for Zone=\"PERIMETER_ZN_3 ZN\", only 0.12 of the zone is controlled.\n   ** Warning ** GetDaylightingControls: Fraction of Zone controlled by the Daylighting reference points is < 1.0.\n   **   ~~~   ** ..discovered in \"Daylighting:Controls\" for Zone=\"PERIMETER_ZN_4 ZN\", only 0.21 of the zone is controlled.\n   ************* Beginning System Sizing Calculations\n   ** Warning ** Since Zone Minimum Air Flow Input Method = CONSTANT, input for Fixed Minimum Air Flow Rate will be ignored.\n   **   ~~~   ** Occurs in AirTerminal:SingleDuct:VAV:Reheat = CORE_ZN ZN VAV TERMINAL\n   ** Warning ** Since Zone Minimum Air Flow Input Method = CONSTANT, input for Fixed Minimum Air Flow Rate will be ignored.\n   **   ~~~   ** Occurs in AirTerminal:SingleDuct:VAV:Reheat = PERIMETER_ZN_1 ZN VAV TERMINAL\n   ** Warning ** Since Zone Minimum Air Flow Input Method = CONSTANT, input for Fixed Minimum Air Flow Rate will be ignored.\n   **   ~~~   ** Occurs in AirTerminal:SingleDuct:VAV:Reheat = PERIMETER_ZN_2 ZN VAV TERMINAL\n   ** Warning ** Since Zone Minimum Air Flow Input Method = CONSTANT, input for Fixed Minimum Air Flow Rate will be ignored.\n   **   ~~~   ** Occurs in AirTerminal:SingleDuct:VAV:Reheat = PERIMETER_ZN_3 ZN VAV TERMINAL\n   ** Warning ** Since Zone Minimum Air Flow Input Method = CONSTANT, input for Fixed Minimum Air Flow Rate will be ignored.\n   **   ~~~   ** Occurs in AirTerminal:SingleDuct:VAV:Reheat = PERIMETER_ZN_4 ZN VAV TERMINAL\n   ************* Beginning Plant Sizing Calculations\n   ** Warning ** Sizing: Coil:Cooling:DX:TwoStageWithHumidityControlMode \"TWO STAGE DX COIL WITH HUMIDITY CONTROL\": Rated air volume flow rate per watt of rated total cooling capacity is out of range.\n   **   ~~~   ** Min Rated Vol Flow Per Watt=[4.027E-005], Rated Vol Flow Per Watt=[2.222E-005], Max Rated Vol Flow Per Watt=[6.041E-005]. See Input Output Reference Manual for valid range.\n   **   ~~~   ** for CoilPerformance:DX:Cooling mode: COIL PERFORMANCE DX COOLING 1\n   ** Warning ** For object = COILPERFORMANCE:DX:COOLING, name = \"COIL PERFORMANCE DX COOLING 1\"\n   **   ~~~   ** Calculated outlet air relative humidity greater than 1. The combination of\n   **   ~~~   ** rated air volume flow rate, total cooling capacity and sensible heat ratio yields coil exiting\n   **   ~~~   ** air conditions above the saturation curve. Possible fixes are to reduce the rated total cooling\n   **   ~~~   ** capacity, increase the rated air volume flow rate, or reduce the rated sensible heat ratio for this coil.\n   **   ~~~   ** If autosizing, it is recommended that all three of these values be autosized.\n   **   ~~~   ** ...Inputs used for calculating cooling coil bypass factor.\n   **   ~~~   ** ...Inlet Air Temperature     = 26.67 C\n   **   ~~~   ** ...Outlet Air Temperature    = 0.38 C\n   **   ~~~   ** ...Inlet Air Humidity Ratio  = 1.125000E-002 kgWater/kgDryAir\n   **   ~~~   ** ...Outlet Air Humidity Ratio = 6.475415E-003 kgWater/kgDryAir\n   **   ~~~   ** ...Total Cooling Capacity used in calculation = 4500.00 W\n   **   ~~~   ** ...Air Mass Flow Rate used in calculation     = 0.115663 kg/s\n   **   ~~~   ** ...Air Volume Flow Rate used in calculation   = 0.100000 m3/s\n   **   ~~~   ** ...Air Volume Flow Rate per Watt of Rated Cooling Capacity is also out of bounds at = 2.2222222E-005 m3/s/W\n   **   ~~~   **  During Warmup, Environment=CHICAGO OHARE INTL AP ANN CLG .4% CONDNS DB=>MWB, at Simulation time=07/21 00:00 - 00:10\n   **   ~~~   ** CalcCBF: SHR adjusted to achieve valid outlet air properties and the simulation continues.\n   **   ~~~   ** CalcCBF: initial SHR = 0.68700\n   **   ~~~   ** CalcCBF: adjusted SHR = 0.59146\n   ** Warning ** Sizing: Coil:Cooling:DX:TwoStageWithHumidityControlMode \"TWO STAGE DX COIL WITH HUMIDITY CONTROL\": Rated air volume flow rate per watt of rated total cooling capacity is out of range.\n   **   ~~~   ** Min Rated Vol Flow Per Watt=[4.027E-005], Rated Vol Flow Per Watt=[2.222E-005], Max Rated Vol Flow Per Watt=[6.041E-005]. See Input Output Reference Manual for valid range.\n   **   ~~~   ** for CoilPerformance:DX:Cooling mode: COIL PERFORMANCE DX COOLING 3\n   ** Warning ** For object = COILPERFORMANCE:DX:COOLING, name = \"COIL PERFORMANCE DX COOLING 3\"\n   **   ~~~   ** Calculated outlet air relative humidity greater than 1. The combination of\n   **   ~~~   ** rated air volume flow rate, total cooling capacity and sensible heat ratio yields coil exiting\n   **   ~~~   ** air conditions above the saturation curve. Possible fixes are to reduce the rated total cooling\n   **   ~~~   ** capacity, increase the rated air volume flow rate, or reduce the rated sensible heat ratio for this coil.\n   **   ~~~   ** If autosizing, it is recommended that all three of these values be autosized.\n   **   ~~~   ** ...Inputs used for calculating cooling coil bypass factor.\n   **   ~~~   ** ...Inlet Air Temperature     = 26.67 C\n   **   ~~~   ** ...Outlet Air Temperature    = 0.38 C\n   **   ~~~   ** ...Inlet Air Humidity Ratio  = 1.125000E-002 kgWater/kgDryAir\n   **   ~~~   ** ...Outlet Air Humidity Ratio = 6.475415E-003 kgWater/kgDryAir\n   **   ~~~   ** ...Total Cooling Capacity used in calculation = 4500.00 W\n   **   ~~~   ** ...Air Mass Flow Rate used in calculation     = 0.115663 kg/s\n   **   ~~~   ** ...Air Volume Flow Rate used in calculation   = 0.100000 m3/s\n   **   ~~~   ** ...Air Volume Flow Rate per Watt of Rated Cooling Capacity is also out of bounds at = 2.2222222E-005 m3/s/W\n   **   ~~~   **  During Warmup, Environment=CHICAGO OHARE INTL AP ANN CLG .4% CONDNS DB=>MWB, at Simulation time=07/21 00:00 - 00:10\n   **   ~~~   ** CalcCBF: SHR adjusted to achieve valid outlet air properties and the simulation continues.\n   **   ~~~   ** CalcCBF: initial SHR = 0.68700\n   **   ~~~   ** CalcCBF: adjusted SHR = 0.59146\n   ** Warning ** Missing temperature setpoint for LeavingSetpointModulated mode Boiler named BOILER 124KBTU/HR 0.8 AFUE\n   **   ~~~   **   A temperature setpoint is needed at the outlet node of a boiler in variable flow mode\n   **   ~~~   **   use a Setpoint Manager to establish a setpoint at the boiler outlet node \n   **   ~~~   **   or use an EMS actuator to establish a setpoint at the boiler outlet node \n   **   ~~~   **   The overall loop setpoint will be assumed for Boiler. The simulation continues ... \n   ** Warning ** SizePlantLoop: Calculated Plant Sizing Design Volume Flow Rate=[0.00] is too small. Set to 0.0\n   **   ~~~   ** ..occurs for PlantLoop=MAIN SERVICE WATER LOOP\n   ** Warning ** SizePump: Calculated Pump Nominal Volume Flow Rate=[0.00] is too small. Set to 0.0\n   **   ~~~   ** ..occurs for Pump=MAIN SERVICE WATER LOOP WATER MAINS PRESSURE DRIVEN\n   ** Warning ** Check input. Pump nominal power or motor efficiency is set to 0, for pump=MAIN SERVICE WATER LOOP WATER MAINS PRESSURE DRIVEN\n   ** Warning ** Check input. Pump nominal flow rate is set or calculated = 0, for pump=MAIN SERVICE WATER LOOP WATER MAINS PRESSURE DRIVEN\n   ** Warning ** Output:Meter: invalid Key Name=\"DISTRICTCOOLING:FACILITY\" - not found.\n   ** Warning ** Output:Meter: invalid Key Name=\"DISTRICTHEATING:FACILITY\" - not found.\n   ** Warning ** Output:Meter:MeterFileOnly requested for \"Electricity:Facility\" (TimeStep), already on \"Output:Meter\". Will report to both eplusout.eso and eplusout.mtr\n   ************* Testing Individual Branch Integrity\n   ************* All Branches passed integrity testing\n   ************* Testing Individual Supply Air Path Integrity\n   ************* All Supply Air Paths passed integrity testing\n   ************* Testing Individual Return Air Path Integrity\n   ************* All Return Air Paths passed integrity testing\n   ************* No node connection errors were found.\n   ************* Beginning Simulation\n   ** Warning ** Processing Monthly Tabular Reports: Variable names not valid for this simulation\n   **   ~~~   ** ...use Output:Diagnostics,DisplayExtraWarnings; to show more details on individual variables.\n   ** Warning ** CalcDoe2DXCoil: Coil:Cooling:DX:TwoStageWithHumidityControlMode=\"TWO STAGE DX COIL WITH HUMIDITY CONTROL\" - Air volume flow rate per watt of rated total cooling capacity is out of range at 1.318E-004 m3/s/W.\n   **   ~~~   **  Environment=RUN PERIOD 1, at Simulation time=02/23 09:20 - 09:30\n   **   ~~~   ** Expected range for VolumeFlowPerRatedTotalCapacity=[2.684E-005--6.713E-005]\n   **   ~~~   ** Possible causes include inconsistent air flow rates in system components,\n   **   ~~~   ** or variable air volume [VAV] system using incorrect coil type.\n   ** Warning ** CalcDoe2DXCoil: Coil:Cooling:DX:TwoStageWithHumidityControlMode \"TWO STAGE DX COIL WITH HUMIDITY CONTROL\" - Full load outlet air dry-bulb temperature < 2C. This indicates the possibility of coil frost/freeze. Outlet temperature = -2.60 C.\n   **   ~~~   **  ...Occurrence info = RUN PERIOD 1, 03/10 10:30 - 10:40\n   **   ~~~   ** ... Possible reasons for low outlet air dry-bulb temperatures are: This DX coil\n   **   ~~~   **    1) may have a low inlet air dry-bulb temperature. Inlet air temperature = 14.466 C.\n   **   ~~~   **    2) may have a low air flow rate per watt of cooling capacity. Check inputs.\n   **   ~~~   **    3) is used as part of a HX assisted cooling coil which uses a high sensible effectiveness. Check inputs.\n   ** Warning ** The resource referenced by LifeCycleCost:UsePriceEscalation= \"U.S. AVG  COMMERCIAL-ELECTRICITY\" has no energy cost. \n   **   ~~~   ** ... It is likely that the wrong resource is used. The resource should match the meter used in Utility:Tariff.\n   ** Warning ** The resource referenced by LifeCycleCost:UsePriceEscalation= \"U.S. AVG  COMMERCIAL-DISTILLATE OIL\" has no energy cost. \n   **   ~~~   ** ... It is likely that the wrong resource is used. The resource should match the meter used in Utility:Tariff.\n   ** Warning ** The resource referenced by LifeCycleCost:UsePriceEscalation= \"U.S. AVG  COMMERCIAL-RESIDUAL OIL\" has no energy cost. \n   **   ~~~   ** ... It is likely that the wrong resource is used. The resource should match the meter used in Utility:Tariff.\n   ** Warning ** The resource referenced by LifeCycleCost:UsePriceEscalation= \"U.S. AVG  COMMERCIAL-NATURAL GAS\" has no energy cost. \n   **   ~~~   ** ... It is likely that the wrong resource is used. The resource should match the meter used in Utility:Tariff.\n   ** Warning ** The resource referenced by LifeCycleCost:UsePriceEscalation= \"U.S. AVG  COMMERCIAL-COAL\" has no energy cost. \n   **   ~~~   ** ... It is likely that the wrong resource is used. The resource should match the meter used in Utility:Tariff.\n   ************* Simulation Error Summary *************\n   ************* There are 10 unused schedules in input.\n   ************* There are 10 unused week schedules in input.\n   ************* There are 19 unused day schedules in input.\n   ************* Use Output:Diagnostics,DisplayUnusedSchedules; to see them.\n   *************\n   ************* ===== Recurring Error Summary =====\n   ************* The following recurring error messages occurred.\n   *************\n   *************  ** Warning ** CalcDoe2DXCoil: Coil:Cooling:DX:TwoStageWithHumidityControlMode=\"TWO STAGE DX COIL WITH HUMIDITY CONTROL\" - Air volume flow rate per watt of rated total cooling capacity is out of range error continues...\n   *************  **   ~~~   **   This error occurred 323805 total times;\n   *************  **   ~~~   **   during Warmup 0 times;\n   *************  **   ~~~   **   during Sizing 0 times.\n   *************  **   ~~~   **   Max=3.091095E-004  Min=6.713289E-005\n   *************\n   *************  ** Warning ** CalcDoe2DXCoil: Coil:Cooling:DX:TwoStageWithHumidityControlMode=\"TWO STAGE DX COIL WITH HUMIDITY CONTROL\" - Full load outlet temperature indicates a possibility of frost/freeze error continues. Outlet air temperature statistics follow:\n   *************  **   ~~~   **   This error occurred 646 total times;\n   *************  **   ~~~   **   during Warmup 0 times;\n   *************  **   ~~~   **   during Sizing 0 times.\n   *************  **   ~~~   **   Max=1.983823  Min=-2.947063\n   *************\n   *************\n   ************* ===== Final Error Summary =====\n   ************* The following error categories occurred.  Consider correcting or noting.\n   ************* Nominally Unused Constructions\n   ************* ..The nominally unused constructions warning is provided to alert you to potential conditions that can cause\n   ************* ..extra time during simulation. Each construction is calculated by the algorithm indicated in the HeatBalanceAlgorithm\n   ************* ..object. You may remove the constructions indicated (when you use the DisplayExtraWarnings option).\n   *************\n   ************* EnergyPlus Warmup Error Summary. During Warmup: 0 Warning; 0 Severe Errors.\n   ************* EnergyPlus Sizing Error Summary. During Sizing: 17 Warning; 0 Severe Errors.\n   ************* EnergyPlus Completed Successfully-- 324486 Warning; 0 Severe Errors; Elapsed Time=00hr 02min 58.87sec\n",
   "file_format_version" : "0.0.1",
   "file_paths" : [
      "C:/Users/JKIM4/Documents/GitHub/AFDD-FaultModelParametric/temp_data/analysis_f451ead3-737c-4d95-90b0-9630641c087f/data_point_5ae92b00-0695-44de-a21f-7198c12872af/generated_files",
      "../weather",
      "../seeds",
      "../seed",
      "./files",
      "./weather",
      "../../files",
      "../../weather",
      "./"
   ],
   "hash" : "C36B2BB1",
   "measure_paths" : [ "../measures" ],
   "name" : "CondenserFanDegradation",
   "osa_id" : "f451ead3-737c-4d95-90b0-9630641c087f",
   "osd_id" : "5ae92b00-0695-44de-a21f-7198c12872af",
   "run_directory" : "./run",
   "seed_file" : "testbldg_v6.osm",
   "started_at" : "20200703T193000Z",
   "steps" : [
      {
         "arguments" : {
            "__SKIP__" : true,
            "equip_name" : "* ALL AHUs *",
            "fanCurvea1" : 1.4048,
            "flow_decrease_ratio" : 0.10000000000000001
         },
         "description" : "Ducts are fouled by dust that accumulates in the filter and/or fins of heat exchangers in the indoor air ducts. The accumulation increases the flow resistance of the air duct and changes the airflow and pressure drop across the duct in accordance with the controls of the fan rotational speed. This fault is categorized as a fault that occur in the ventilation system during the operation stage. This fault measure is based on an empirical model and simulates duct fouling by modifying either Fan:ConstantVolume, Fan:VariableVolume, Fan:OnOff, or Fan:VariableVolume objects in EnergyPlus assigned to the air system. F is the fault intensity defined as the reduction in evaporator coil airflow at full load condition as a ratio of the design airflow rate with the application range of 0 to 0.5 (50% reduction).",
         "measure_dir_name" : "DuctFouling",
         "name" : "duct_fouling",
         "result" : {
            "completed_at" : "20200703T193001Z",
            "measure_class_name" : "DuctFouling",
            "measure_display_name" : "Duct Fouling",
            "measure_name" : "duct_fouling",
            "measure_taxonomy" : "HVAC.Ventilation",
            "measure_type" : "ModelMeasure",
            "measure_uid" : "20a9d083-d915-4653-8893-d94a6dbc72d8",
            "measure_version_id" : "b9b3a513-41a5-4786-905f-8782e01b5fc2",
            "measure_version_modified" : "20200409T145323Z",
            "measure_xml_checksum" : "266557E5",
            "started_at" : "20200703T193001Z",
            "stderr" : "",
            "stdout" : "",
            "step_errors" : [],
            "step_files" : [],
            "step_info" : [],
            "step_result" : "Skip",
            "step_values" : [],
            "step_warnings" : []
         }
      },
      {
         "arguments" : {
            "__SKIP__" : true,
            "damper_pos" : 0.5,
            "econ_choice" : "* ALL Controller:OutdoorAir *",
            "sch_choice" : "Always On Discrete",
            "schedule_exist" : false
         },
         "description" : "Stuck dampers associated with economizers can be caused by seized actuators, broken linkages, economizer control system failures, or the failure of sensors that are used to determine damper position. In extreme cases, dampers stuck at either 100% open or closed can have a serious impact on system energy consumption or occupant comfort in the space. This fault is categorized as a fault that occur in the economizer system (damper) during the operation stage. This fault measure is based on a physical model where certain parameter(s) is changed in EnergyPlus to mimic the faulted operation; thus simulates a stuck damper by modifying the Controller:OutdoorAir object in EnergyPlus. The fault intensity (F) for this fault is defined as the ratio of economizer damper at the stuck position (0 = fully closed, 1 = fully open).",
         "measure_dir_name" : "EconomizerOpeningStuck",
         "name" : "economizer_opening_stuck",
         "result" : {
            "completed_at" : "20200703T193001Z",
            "measure_class_name" : "EconomizerOpeningStuck",
            "measure_display_name" : "Economizer Opening Stuck",
            "measure_name" : "economizer_opening_stuck",
            "measure_taxonomy" : "HVAC.HVAC Controls",
            "measure_type" : "ModelMeasure",
            "measure_uid" : "2a4a6312-c5d6-40e6-a8a0-cbd552a5949b",
            "measure_version_id" : "e7ddc6fa-24ed-4ec9-b5d1-9bd85231ebf5",
            "measure_version_modified" : "20200409T145323Z",
            "measure_xml_checksum" : "2C877DEB",
            "started_at" : "20200703T193001Z",
            "stderr" : "",
            "stdout" : "",
            "step_errors" : [],
            "step_files" : [],
            "step_info" : [],
            "step_result" : "Skip",
            "step_values" : [],
            "step_warnings" : []
         }
      },
      {
         "arguments" : {
            "__SKIP__" : true,
            "end_date" : 31,
            "end_month" : 12,
            "end_time" : 23,
            "space_infiltration_increase_ratio" : 0.20000000000000001,
            "start_date" : 1,
            "start_month" : 6,
            "start_time" : 9,
            "thermalzone" : "*Entire Building*",
            "time_constant" : 0
         },
         "description" : "Excessive infiltration around the building envelope occurs by the unintentional introduction of outside air into a building, typically through cracks in the building envelope and through use of windows and doors. Infiltration is driven by pressure differences between indoors and outdoors of the building caused by wind and by air buoyancy forces known commonly as the stack effect. Excessive infiltration can affect thermal comfort, indoor air quality, heating and cooling demand, and moisture damage of building envelope components. This fault is categorized as a fault that occur in the building envelope during the operation stage. This fault measure is based on a physical model where certain parameter(s) is changed in EnergyPlus to mimic the faulted operation; thus simulates an excessive infiltration by modifying ZoneInfiltration:DesignFlowRate or ZoneInfiltration:EffectiveLeakageArea objects in EnergyPlus. The fault intensity (F) is defined as the ratio of excessive infiltration around the building envelope compared to the non-faulted condition.",
         "measure_dir_name" : "ExcessiveInfiltration",
         "name" : "excessive_infiltration",
         "result" : {
            "completed_at" : "20200703T193002Z",
            "measure_class_name" : "ExcessiveInfiltration",
            "measure_display_name" : "Excessive Infiltration",
            "measure_name" : "excessive_infiltration",
            "measure_taxonomy" : "Envelope.Infiltration",
            "measure_type" : "ModelMeasure",
            "measure_uid" : "d8161857-8b77-4e1a-a76c-ae5deab7c1e0",
            "measure_version_id" : "277e2b1c-e8fb-4331-baf9-a60981e368fd",
            "measure_version_modified" : "20200409T145323Z",
            "measure_xml_checksum" : "EACB548E",
            "started_at" : "20200703T193002Z",
            "stderr" : "",
            "stdout" : "",
            "step_errors" : [],
            "step_files" : [],
            "step_info" : [],
            "step_result" : "Skip",
            "step_values" : [],
            "step_warnings" : []
         }
      },
      {
         "arguments" : {
            "__SKIP__" : true,
            "dayofweek" : "All days",
            "end_month" : "December",
            "ext_hr" : 1,
            "ext_hr_airloop" : true,
            "start_month" : "January",
            "zone" : "* All Zones *"
         },
         "description" : "Thermostat schedules are employed to raise set points for cooling and lower set points for heating at night, to switch fan operation from being continuously on during occupied times to being coupled to cooling or heating demands at other times, and to close ventilation dampers during unoccupied periods. Faults can occur due to malfunctioning, unprogrammed, or incorrectly programmed or scheduled thermostats, leading to increased energy consumption and/or compromised comfort and air quality. This fault is categorized as a fault that occur in the HVAC system (controller) during the operation stage. This fault measure is based on a physical model where certain parameter(s) is changed in EnergyPlus to mimic the faulted operation; thus simulates the effect of overnight HVAC setback being delayed until unoccupied hours by modifying the Schedule:Compact object in EnergyPlus assigned to thermostat set point schedules. The fault intensity (F) defined as the delay in onset of overnight HVAC setback (in hours).",
         "measure_dir_name" : "HVACSetbackErrorDelayedOnset",
         "name" : "hvac_setback_error_delayed_onset",
         "result" : {
            "completed_at" : "20200703T193020Z",
            "measure_class_name" : "HVACSetbackErrorDelayedOnset",
            "measure_display_name" : "HVAC Setback Error: Delayed Onset",
            "measure_name" : "hvac_setback_error_delayed_onset",
            "measure_taxonomy" : "HVAC.HVAC Controls",
            "measure_type" : "ModelMeasure",
            "measure_uid" : "fa0f7ae0-8ff7-4484-8a91-842a42656284",
            "measure_version_id" : "11c946bc-f53d-4bd2-a74a-076fe81831a7",
            "measure_version_modified" : "20200409T145323Z",
            "measure_xml_checksum" : "2C877DEB",
            "started_at" : "20200703T193020Z",
            "stderr" : "",
            "stdout" : "",
            "step_errors" : [],
            "step_files" : [],
            "step_info" : [],
            "step_result" : "Skip",
            "step_values" : [],
            "step_warnings" : []
         }
      },
      {
         "arguments" : {
            "__SKIP__" : true,
            "dayofweek" : "All days",
            "end_month" : "December",
            "ext_hr" : 1,
            "ext_hr_airloop" : true,
            "start_month" : "January",
            "zone" : "* All Zones *"
         },
         "description" : "Thermostat schedules are employed to raise set points for cooling and lower set points for heating at night, to switch fan operation from being continuously on during occupied times to being coupled to cooling or heating demands at other times, and to close ventilation dampers during unoccupied periods. Faults can occur due to malfunctioning, unprogrammed, or incorrectly programmed or scheduled thermostats, leading to increased energy consumption and/or compromised comfort and air quality. This fault is categorized as a fault that occur in the HVAC system (controller) during the operation stage. This fault measure is based on a physical model where certain parameter(s) is changed in EnergyPlus to mimic the faulted operation; thus simulates the effect of overnight HVAC setback being terminated earlier during unoccupied hours by modifying the Schedule:Compact object in EnergyPlus assigned to thermostat set point schedules. The fault intensity (F) is defined as the early termination of overnight HVAC setback (in hours).",
         "measure_dir_name" : "HVACSetbackErrorEarlyTermination",
         "name" : "hvac_setback_error_early_termination",
         "result" : {
            "completed_at" : "20200703T193021Z",
            "measure_class_name" : "HVACSetbackErrorEarlyTermination",
            "measure_display_name" : "HVAC Setback Error: Early Termination",
            "measure_name" : "hvac_setback_error_early_termination",
            "measure_taxonomy" : "HVAC.HVAC Controls",
            "measure_type" : "ModelMeasure",
            "measure_uid" : "d6a0f476-5b23-4273-ae00-93e55fa5f917",
            "measure_version_id" : "10e5da13-063c-4dbc-8edd-b1576cf0a305",
            "measure_version_modified" : "20200409T145323Z",
            "measure_xml_checksum" : "2C877DEB",
            "started_at" : "20200703T193021Z",
            "stderr" : "",
            "stdout" : "",
            "step_errors" : [],
            "step_files" : [],
            "step_info" : [],
            "step_result" : "Skip",
            "step_values" : [],
            "step_warnings" : []
         }
      },
      {
         "arguments" : {
            "__SKIP__" : true,
            "dayofweek" : "All days",
            "end_month" : "December",
            "ext_hr" : 1,
            "start_month" : "January",
            "zone" : "* All Zones *"
         },
         "description" : "Compared to scheduled lighting operation, using an occupancy sensor for the lighting control is more suitable when the space is intermittently occupied. In other words, when the space is left with the lights on for large amount of portion throughout the day, it is better to use the occupancy sensor to save the lighting energy consumption. However, setting a time delay in the occupancy sensor is a trade-off between occupantΓÇÖs visual discomfort and energy savings. If the time delay is too short, chances increase for energy savings. But on the other side, lights being on and off too often increases visual discomfort for occupants in the space. 15 minutes of time delay is common in the real application, however, the setting can be improperly implemented in the field. This fault measure is based on a physical model where certain parameter(s) is changed in EnergyPlus to mimic the faulted operation; thus simulates the effect of an improper time delay setting in occupancy sensors by modifying the Schedule:Compact object in EnergyPlus assigned to lighting schedules. This fault is categorized as a fault that occur in the lighting system (controller) during the operation stage. The fault intensity (F) is defined as the delayed time setting (in hours).",
         "measure_dir_name" : "ImproperTimeDelaySettingInOccupancySensors",
         "name" : "improper_time_delay_setting_in_occupancy_sensors",
         "result" : {
            "completed_at" : "20200703T193021Z",
            "measure_class_name" : "ImproperTimeDelaySettingInOccupancySensors",
            "measure_display_name" : "Improper Time Delay Setting in Occupancy Sensors",
            "measure_name" : "improper_time_delay_setting_in_occupancy_sensors",
            "measure_taxonomy" : "Electric Lighting.Electric Lighting Controls",
            "measure_type" : "ModelMeasure",
            "measure_uid" : "80bceaba-6cd1-43ba-b322-4ad17e72e22a",
            "measure_version_id" : "5ccd8d0d-8ed8-47fd-adea-f22e2130e157",
            "measure_version_modified" : "20200409T145324Z",
            "measure_xml_checksum" : "9B7BB4D8",
            "started_at" : "20200703T193021Z",
            "stderr" : "",
            "stdout" : "",
            "step_errors" : [],
            "step_files" : [],
            "step_info" : [],
            "step_result" : "Skip",
            "step_values" : [],
            "step_warnings" : []
         }
      },
      {
         "arguments" : {
            "__SKIP__" : true,
            "dayofweek" : "All days",
            "end_month" : "December",
            "ext_hr_airloop" : true,
            "start_month" : "January",
            "zone" : "* All Zones *"
         },
         "description" : "Thermostat schedules are employed to raise set points for cooling and lower set points for heating at night, to switch fan operation from being continuously on during occupied times to being coupled to cooling or heating demands at other times, and to close ventilation dampers during unoccupied periods. Faults can occur due to malfunctioning, unprogrammed, or incorrectly programmed or scheduled thermostats, leading to increased energy consumption and/or compromised comfort and air quality. This fault is categorized as a fault that occur in the HVAC system (controller) during the operation stage. This fault measure is based on a physical model where certain parameter(s) is changed in EnergyPlus to mimic the faulted operation; thus simulates the effect of having no overnight setback by modifying the Schedule:Compact object in EnergyPlus assigned to thermostat set point schedules. The fault intensity (F) is defined as the absence of overnight HVAC setback (binary).",
         "measure_dir_name" : "HVACSetbackErrorNoOvernightSetback",
         "name" : "hvac_setback_error_no_overnight_setback",
         "result" : {
            "completed_at" : "20200703T193022Z",
            "measure_class_name" : "HVACSetbackErrorNoOvernightSetback",
            "measure_display_name" : "HVAC Setback Error: No Overnight Setback",
            "measure_name" : "hvac_setback_error_no_overnight_setback",
            "measure_taxonomy" : "HVAC.HVAC Controls",
            "measure_type" : "ModelMeasure",
            "measure_uid" : "c160018f-11b0-44e6-9ac4-65c16d043dfa",
            "measure_version_id" : "4348a819-ab74-4831-a404-4ca64df4ac7e",
            "measure_version_modified" : "20200409T145323Z",
            "measure_xml_checksum" : "2C877DEB",
            "started_at" : "20200703T193022Z",
            "stderr" : "",
            "stdout" : "",
            "step_errors" : [],
            "step_files" : [],
            "step_info" : [],
            "step_result" : "Skip",
            "step_values" : [],
            "step_warnings" : []
         }
      },
      {
         "arguments" : {
            "__SKIP__" : true,
            "dayofweek" : "All days",
            "end_month" : "December",
            "ext_hr" : 1,
            "start_month" : "January",
            "zone" : "* All Zones *"
         },
         "description" : "Lighting should be turned off or at least reduced during unoccupied hours. However, some commissioning studies have found noticeable lighting energy use at night either because lighting schedules are improperly configured or occupants forget to turn off lights when vacating a building. This fault is categorized as a fault that occur in the lighting system (controller) during the operation stage. This fault measure is based on a physical model where certain parameter(s) is changed in EnergyPlus to mimic the faulted operation; thus simulates the effect of lighting setback being delayed until unoccupied hours by modifying the Schedule:Compact object in EnergyPlus assigned to lighting schedules. The fault intensity (F) is defined as the delay in the onset of overnight lighting setback (in hours).",
         "measure_dir_name" : "LightingSetbackErrorDelayedOnset",
         "name" : "lighting_setback_error_delayed_onset",
         "result" : {
            "completed_at" : "20200703T193023Z",
            "measure_class_name" : "LightingSetbackErrorDelayedOnset",
            "measure_display_name" : "Lighting Setback Error: Delayed Onset",
            "measure_name" : "lighting_setback_error_delayed_onset",
            "measure_taxonomy" : "Electric Lighting.Electric Lighting Controls",
            "measure_type" : "ModelMeasure",
            "measure_uid" : "e97755d6-9e77-418e-8292-7c177ab1653c",
            "measure_version_id" : "2f84ccf5-8212-4385-805a-33e0b52da8c3",
            "measure_version_modified" : "20200409T145324Z",
            "measure_xml_checksum" : "9B7BB4D8",
            "started_at" : "20200703T193023Z",
            "stderr" : "",
            "stdout" : "",
            "step_errors" : [],
            "step_files" : [],
            "step_info" : [],
            "step_result" : "Skip",
            "step_values" : [],
            "step_warnings" : []
         }
      },
      {
         "arguments" : {
            "__SKIP__" : true,
            "dayofweek" : "All days",
            "end_month" : "December",
            "ext_hr" : 1,
            "start_month" : "January",
            "zone" : "* All Zones *"
         },
         "description" : "Lighting should be turned off or at least reduced during unoccupied hours. However, some commissioning studies have found noticeable lighting energy use at night either because lighting schedules are improperly configured or occupants forget to turn off lights when vacating a building. This fault is categorized as a fault that occur in the lighting system (controller) during the operation stage. This fault measure is based on a physical model where certain parameter(s) is changed in EnergyPlus to mimic the faulted operation; thus simulates the effect of the lighting setback being terminated earlier during unoccupied hours by modifying the Schedule:Compact object in EnergyPlus assigned to lighting schedules. The fault intensity (F) is defined as the early termination of overnight lighting setback (in hours).",
         "measure_dir_name" : "LightingSetbackErrorEarlyTermination",
         "name" : "lighting_setback_error_early_termination",
         "result" : {
            "completed_at" : "20200703T193024Z",
            "measure_class_name" : "LightingSetbackErrorEarlyTermination",
            "measure_display_name" : "Lighting Setback Error: Early Termination",
            "measure_name" : "lighting_setback_error_early_termination",
            "measure_taxonomy" : "Electric Lighting.Electric Lighting Controls",
            "measure_type" : "ModelMeasure",
            "measure_uid" : "4068e01b-f572-4805-9d49-a5067c5246ff",
            "measure_version_id" : "5f761fe4-dfd6-4897-8a44-2035fedda07e",
            "measure_version_modified" : "20200409T145324Z",
            "measure_xml_checksum" : "9B7BB4D8",
            "started_at" : "20200703T193024Z",
            "stderr" : "",
            "stdout" : "",
            "step_errors" : [],
            "step_files" : [],
            "step_info" : [],
            "step_result" : "Skip",
            "step_values" : [],
            "step_warnings" : []
         }
      },
      {
         "arguments" : {
            "__SKIP__" : true,
            "dayofweek" : "All days",
            "end_month" : "December",
            "start_month" : "January",
            "zone" : "* All Zones *"
         },
         "description" : "Lighting should be turned off or at least reduced during unoccupied hours. However, some commissioning studies have found noticeable lighting energy use at night either because lighting schedules are improperly configured or occupants forget to turn off lights when vacating a building. This fault is categorized as a fault that occur in the lighting system (controller) during the operation stage. This fault measure is based on a physical model where certain parameter(s) is changed in EnergyPlus to mimic the faulted operation; thus simulates the effect of having no setback during unoccupied hours by modifying the Schedule:Compact object in EnergyPlus assigned to lighting schedules. The fault intensity (F) is defined as the absence of overnight lighting setback (binary).",
         "measure_dir_name" : "LightingSetbackErrorNoOvernightSetback",
         "name" : "lighting_setback_error_no_overnight_setback",
         "result" : {
            "completed_at" : "20200703T193025Z",
            "measure_class_name" : "LightingSetbackErrorNoOvernightSetback",
            "measure_display_name" : "Lighting Setback Error: No Overnight Setback",
            "measure_name" : "lighting_setback_error_no_overnight_setback",
            "measure_taxonomy" : "Electric Lighting.Electric Lighting Controls",
            "measure_type" : "ModelMeasure",
            "measure_uid" : "646e4236-1db0-44fe-92bf-08d761e2d708",
            "measure_version_id" : "32edecee-b83e-4b44-841f-1cf6909dac78",
            "measure_version_modified" : "20200409T145324Z",
            "measure_xml_checksum" : "9B7BB4D8",
            "started_at" : "20200703T193025Z",
            "stderr" : "",
            "stdout" : "",
            "step_errors" : [],
            "step_files" : [],
            "step_info" : [],
            "step_result" : "Skip",
            "step_values" : [],
            "step_warnings" : []
         }
      },
      {
         "arguments" : {
            "__SKIP__" : true,
            "coil_choice" : "* ALL Coil Selected *",
            "sizing_increase_ratio" : 0.10000000000000001
         },
         "description" : "Oversizing of heating and cooling equipment is commonly accepted in real-world applications. In a previous study, more than 40% of the units surveyed were oversized by more than 25%, and 10% were oversized by more than 50%. System oversizing can ensure that the highest heating and cooling demands are met. But excessive oversizing of units can lead to increased equipment cycling with increased energy use due to efficiency losses. This fault is categorized as a fault that occur in the HVAC system during the design stage. This fault measure is based on a physical model where certain parameter(s) is changed in EnergyPlus to mimic the faulted operation; thus simulates oversized equipment by modifying Sizing:Parameters object in EnergyPlus. The fault intensity (F) is defined as the ratio of increased sizing compared to the correct sizing.",
         "measure_dir_name" : "OversizedEquipmentAtDesign",
         "name" : "oversized_equipment_at_design",
         "result" : {
            "completed_at" : "20200703T193025Z",
            "measure_class_name" : "OversizedEquipmentAtDesign",
            "measure_display_name" : "Oversized Equipment at Design",
            "measure_name" : "oversized_equipment_at_design",
            "measure_taxonomy" : "HVAC.Whole System",
            "measure_type" : "ModelMeasure",
            "measure_uid" : "c97fd24d-b0f3-45e0-93a7-487e0b3759fb",
            "measure_version_id" : "5765cae0-f662-43e7-b12d-8035901e2185",
            "measure_version_modified" : "20200409T145324Z",
            "measure_xml_checksum" : "4435983D",
            "started_at" : "20200703T193025Z",
            "stderr" : "",
            "stdout" : "",
            "step_errors" : [],
            "step_files" : [],
            "step_info" : [],
            "step_result" : "Skip",
            "step_values" : [],
            "step_warnings" : []
         }
      },
      {
         "arguments" : {
            "__SKIP__" : true,
            "bias_level" : 0,
            "end_date" : 31,
            "end_month" : "December",
            "start_date" : 1,
            "start_month" : "January",
            "time_constant" : 0,
            "zone" : "* All Zones *"
         },
         "description" : "Drift of the thermostat temperature sensor over time can lead to increased energy use and/or reduced occupant comfort. This fault is categorized as a fault that occur in the indoor thermostats (sensor) during the operation stage. This fault measure is based on a physical model where certain parameter(s) is changed in EnergyPlus to mimic the faulted operation; thus simulates a biased thermostat by modifying the Schedule:Compact object in EnergyPlus assigned to heating and cooling set points. The fault intensity (F) is defined as the thermostat measurement bias (K). A positive number means that the sensor is reading a temperature higher than the true temperature.",
         "measure_dir_name" : "ThermostatBias",
         "name" : "thermostat_bias",
         "result" : {
            "completed_at" : "20200703T193026Z",
            "measure_class_name" : "ThermostatBias",
            "measure_display_name" : "Thermostat Measurement Bias",
            "measure_name" : "thermostat_bias",
            "measure_taxonomy" : "HVAC.HVAC Controls",
            "measure_type" : "ModelMeasure",
            "measure_uid" : "e359373a-ea8b-459d-a4c0-e2e8ae78b840",
            "measure_version_id" : "e0938397-e497-4378-ac1b-71e56e18fb28",
            "measure_version_modified" : "20200409T145325Z",
            "measure_xml_checksum" : "2C877DEB",
            "started_at" : "20200703T193026Z",
            "stderr" : "",
            "stdout" : "",
            "step_errors" : [],
            "step_files" : [],
            "step_info" : [],
            "step_result" : "Skip",
            "step_values" : [],
            "step_warnings" : []
         }
      },
      {
         "arguments" : {
            "__SKIP__" : true,
            "eff_degrad_fac" : 0.14999999999999999,
            "end_date" : 31,
            "end_month" : 12,
            "end_time" : 23,
            "fan_choice" : "* ALL Fan objects *",
            "start_date" : 1,
            "start_month" : 1,
            "start_time" : 1,
            "time_constant" : 0
         },
         "description" : "Fan motor degradation occurs due to bearing and stator winding faults, leading to a decrease in motor efficiency and an increase in overall fan power consumption. This fault is categorized as a fault that occur in the ventilation system (fan) during the operation stage. This fault measure is based on a semi-empirical model and simulates the air handling unit fan motor degradation by modifying either the Fan:ConstantVolume, Fan:VariableVolume, or the Fan:OnOff objects in EnergyPlus assigned to the ventilation system. The fault intensity (F) for this fault is defined as the ratio of fan motor efficiency degradation with the application range of 0 to 0.3 (30% degradation).",
         "measure_dir_name" : "AirHandlingUnitFanMotorDegradation",
         "name" : "air_handling_unit_fan_motor_degradation",
         "result" : {
            "completed_at" : "20200703T193030Z",
            "measure_class_name" : "AirHandlingUnitFanMotorDegradation",
            "measure_display_name" : "Air Handling Unit Fan Motor Degradation",
            "measure_name" : "air_handling_unit_fan_motor_degradation",
            "measure_taxonomy" : "HVAC.Ventilation",
            "measure_type" : "EnergyPlusMeasure",
            "measure_uid" : "9814a5e9-37b7-472a-bae5-e9e2e794c024",
            "measure_version_id" : "c4461fbb-fa40-4f6f-b165-0b6dad2249ae",
            "measure_version_modified" : "20190701T224405Z",
            "measure_xml_checksum" : "FAAEB4D1",
            "started_at" : "20200703T193030Z",
            "stderr" : "",
            "stdout" : "",
            "step_errors" : [],
            "step_files" : [],
            "step_info" : [],
            "step_result" : "Skip",
            "step_values" : [],
            "step_warnings" : []
         }
      },
      {
         "arguments" : {
            "__SKIP__" : true,
            "econ_choice" : "Controller Outdoor Air 1",
            "mix_temp_bias" : 2
         },
         "description" : "When sensors drift and are not regularly calibrated, it causes a bias. Sensor readings often drift from their calibration with age, causing equipment control algorithms to produce outputs that deviate from their intended function. This fault is categorized as a fault that occur in the economizer system (sensor) during the operation stage. This fault measure is based on a physical model where certain parameter(s) is changed in EnergyPlus to mimic the faulted operation; thus simulates the biased economizer sensor (mixed air temperature) by modifying the SetpointManager object assigned to the economizer. The fault intensity (F) is defined as the biased temperature level (K). A positive number means that the sensor is reading a temperature higher than the true temperature.",
         "measure_dir_name" : "BiasedEconomizerSensorMixedT",
         "name" : "biased_economizer_sensor_mixed_t",
         "result" : {
            "completed_at" : "20200703T193030Z",
            "measure_class_name" : "BiasedEconomizerSensorMixedT",
            "measure_display_name" : "Biased Economizer Sensor: Mixed Temperature",
            "measure_name" : "biased_economizer_sensor_mixed_t",
            "measure_taxonomy" : "HVAC.HVAC Controls",
            "measure_type" : "EnergyPlusMeasure",
            "measure_uid" : "3a9ab8b0-6fe8-4395-9f3e-57726ae4edaa",
            "measure_version_id" : "fbf27f32-9629-4fea-9f58-23e08f889e45",
            "measure_version_modified" : "20200409T145322Z",
            "measure_xml_checksum" : "B7427881",
            "started_at" : "20200703T193030Z",
            "stderr" : "",
            "stdout" : "",
            "step_errors" : [],
            "step_files" : [],
            "step_info" : [],
            "step_result" : "Skip",
            "step_values" : [],
            "step_warnings" : []
         }
      },
      {
         "arguments" : {
            "__SKIP__" : true,
            "econ_choice" : "Controller Outdoor Air 1",
            "end_date" : 31,
            "end_month" : 12,
            "end_time" : 23,
            "oa_rh_bias" : -10,
            "start_date" : 1,
            "start_month" : 1,
            "start_time" : 0,
            "time_constant" : 0
         },
         "description" : "When sensors drift and are not regularly calibrated, it causes a bias. Sensor readings often drift from their calibration with age, causing equipment control algorithms to produce outputs that deviate from their intended function. A positive bias in the economizer outdoor relative humidity (RH) sensor leads to a higher estimate in the outdoor air enthalpy, which shifts the economizer switch-off point and could cause higher cooling or heating energy consumption. This fault is categorized as a fault that occur in the economizer system (sensor) during the operation stage. This fault measure is based on a physical model where certain parameter(s) is changed in EnergyPlus to mimic the faulted operation; thus simulates the biased economizer sensor (outdoor air RH) by modifying the Controller:OutdoorAir object in EnergyPlus assigned to the heating and cooling system. The fault intensity (F) is defined as the biased RH level (%). A positive number means that the sensor is reading a relative humidity higher than the true relative humidity.",
         "measure_dir_name" : "BiasedEconomizerSensorOutdoorRH",
         "name" : "biased_economizer_sensor_outdoor_rh",
         "result" : {
            "completed_at" : "20200703T193030Z",
            "measure_class_name" : "BiasedEconomizerSensorOutdoorRH",
            "measure_display_name" : "Biased Economizer Sensor: Outdoor RH",
            "measure_name" : "biased_economizer_sensor_outdoor_rh",
            "measure_taxonomy" : "HVAC.HVAC Controls",
            "measure_type" : "EnergyPlusMeasure",
            "measure_uid" : "cb5d34a2-7980-44bb-8a41-1f2cb262fd81",
            "measure_version_id" : "373c6d14-0ea3-4a88-a551-b31a55ec283e",
            "measure_version_modified" : "20200409T145322Z",
            "measure_xml_checksum" : "B7427881",
            "started_at" : "20200703T193030Z",
            "stderr" : "",
            "stdout" : "",
            "step_errors" : [],
            "step_files" : [],
            "step_info" : [],
            "step_result" : "Skip",
            "step_values" : [],
            "step_warnings" : []
         }
      },
      {
         "arguments" : {
            "__SKIP__" : true,
            "econ_choice" : "Controller Outdoor Air 1",
            "end_date" : 31,
            "end_month" : 12,
            "end_time" : 23,
            "out_t_bias" : -2,
            "start_date" : 1,
            "start_month" : 1,
            "start_time" : 0,
            "time_constant" : 0
         },
         "description" : "When sensors drift and are not regularly calibrated, it causes a bias. Sensor readings often drift from their calibration with age, causing equipment control algorithms to produce outputs that deviate from their intended function. This fault is categorized as a fault that occur in the economizer system (sensor) during the operation stage. This fault measure is based on a physical model where certain parameter(s) is changed in EnergyPlus to mimic the faulted operation; thus simulates the biased economizer sensor (outdoor temperature) by modifying Controller:OutdoorAir object in EnergyPlus assigned to the heating and cooling system. The fault intensity (F) is defined as the biased temperature level (K). A positive number means that the sensor is reading a temperature higher than the true temperature.",
         "measure_dir_name" : "BiasedEconomizerSensorOutdoorT",
         "name" : "biased_economizer_sensor_oat",
         "result" : {
            "completed_at" : "20200703T193031Z",
            "measure_class_name" : "BiasedEconomizerSensorOAT",
            "measure_display_name" : "Biased Economizer Sensor: Outdoor Temperature",
            "measure_name" : "biased_economizer_sensor_oat",
            "measure_taxonomy" : "HVAC.HVAC Controls",
            "measure_type" : "EnergyPlusMeasure",
            "measure_uid" : "75ad65c1-1f17-4fa3-be05-13a3bb415fbe",
            "measure_version_id" : "c4d6fd48-c3a6-4ada-b408-4b0f4c307064",
            "measure_version_modified" : "20200409T145322Z",
            "measure_xml_checksum" : "B7427881",
            "started_at" : "20200703T193031Z",
            "stderr" : "",
            "stdout" : "",
            "step_errors" : [],
            "step_files" : [],
            "step_info" : [],
            "step_result" : "Skip",
            "step_values" : [],
            "step_warnings" : []
         }
      },
      {
         "arguments" : {
            "__SKIP__" : true,
            "econ_choice" : "Controller Outdoor Air 1",
            "end_date" : 31,
            "end_month" : 12,
            "end_time" : 23,
            "ret_rh_bias" : -10,
            "start_date" : 1,
            "start_month" : 1,
            "start_time" : 0,
            "time_constant" : 0
         },
         "description" : "When sensors drift and are not regularly calibrated, it causes a bias. Sensor readings often drift from their calibration with age, causing equipment control algorithms to produce outputs that deviate from their intended function. This fault is categorized as a fault that occur in the economizer system (sensor) during the operation stage. This fault measure is based on a physical model where certain parameter(s) is changed in EnergyPlus to mimic the faulted operation; thus simulates the biased economizer sensor (return relative humidity) by modifying Controller:OutdoorAir object in EnergyPlus assigned to the heating and cooling system. The fault intensity (F) is defined as the biased RH level (%). A positive number means that the sensor is reading a relative humidity higher than the true relative humidity.",
         "measure_dir_name" : "BiasedEconomizerSensorReturnRH",
         "name" : "biased_economizer_sensor_return_rh",
         "result" : {
            "completed_at" : "20200703T193031Z",
            "measure_class_name" : "BiasedEconomizerSensorReturnRH",
            "measure_display_name" : "Biased Economizer Sensor: Return RH",
            "measure_name" : "biased_economizer_sensor_return_rh",
            "measure_taxonomy" : "HVAC.HVAC Controls",
            "measure_type" : "EnergyPlusMeasure",
            "measure_uid" : "581a85db-9cee-480f-9e5f-bbf62b217268",
            "measure_version_id" : "a0889032-87bb-465a-9341-01f7b8342a06",
            "measure_version_modified" : "20200409T145322Z",
            "measure_xml_checksum" : "B7427881",
            "started_at" : "20200703T193031Z",
            "stderr" : "",
            "stdout" : "",
            "step_errors" : [],
            "step_files" : [],
            "step_info" : [],
            "step_result" : "Skip",
            "step_values" : [],
            "step_warnings" : []
         }
      },
      {
         "arguments" : {
            "__SKIP__" : true,
            "econ_choice" : "Controller Outdoor Air 1",
            "end_date" : 31,
            "end_month" : 12,
            "end_time" : 23,
            "ret_t_bias" : -2,
            "start_date" : 1,
            "start_month" : 1,
            "start_time" : 0,
            "time_constant" : 0
         },
         "description" : "When sensors drift and are not regularly calibrated, it causes a bias. Sensor readings often drift from their calibration with age, causing equipment control algorithms to produce outputs that deviate from their intended function. This fault is categorized as a fault that occur in the economizer system (sensor) during the operation stage. This fault measure is based on a physical model where certain parameter(s) is changed in EnergyPlus to mimic the faulted operation; thus simulates the biased economizer sensor (return temperature) by modifying Controller:OutdoorAir object in EnergyPlus assigned to the heating and cooling system. The fault intensity (F) is defined as the biased temperature level (K). A positive number means that the sensor is reading a temperature higher than the true temperature.",
         "measure_dir_name" : "BiasedEconomizerSensorReturnT",
         "name" : "biased_economizer_sensor_return_t",
         "result" : {
            "completed_at" : "20200703T193031Z",
            "measure_class_name" : "BiasedEconomizerSensorReturnT",
            "measure_display_name" : "Biased Economizer Sensor: Return Temperature",
            "measure_name" : "biased_economizer_sensor_return_t",
            "measure_taxonomy" : "HVAC.HVAC Controls",
            "measure_type" : "EnergyPlusMeasure",
            "measure_uid" : "f1ba09fb-2903-45b2-838c-604b63fc4662",
            "measure_version_id" : "c377f604-8fa4-4adc-90e2-0d3f7656c9f3",
            "measure_version_modified" : "20200409T145323Z",
            "measure_xml_checksum" : "B7427881",
            "started_at" : "20200703T193031Z",
            "stderr" : "",
            "stdout" : "",
            "step_errors" : [],
            "step_files" : [],
            "step_info" : [],
            "step_result" : "Skip",
            "step_values" : [],
            "step_warnings" : []
         }
      },
      {
         "arguments" : {
            "__SKIP__" : false,
            "coil_choice" : "* ALL Coil Selected *",
            "end_date" : 31,
            "end_month" : 12,
            "end_time" : 23,
            "fan_power_ratio" : 0.091747080999999994,
            "fault_lvl" : 0.5,
            "start_date" : 1,
            "start_month" : 1,
            "start_time" : 0,
            "time_constant" : 0
         },
         "description" : "Option 1 Description: Motor efficiency degrades when a motor suffers from a bearing or a stator winding fault. This fault causes the motor to draw higher electrical current without changing the fluid flow. Both a bearing fault and a stator winding fault can be modeled by increasing the power consumption of the condenser fan without changing the airflow of the condenser fan. This fault is categorized as a fault that occur in the vapor compression system during the operation stage. This fault measure is based on an empirical model and simulates the condenser fan degradation by modifying the Coil:Cooling:DX:SingleSpeed object in EnergyPlus assigned to the heating and cooling system. The fault intensity (F) is defined as the reduction in motor efficiency as a fraction of the non-faulted motor efficiency with the application range of 0 to 0.3 (30% degradation).",
         "measure_dir_name" : "CondenserFanDegradation",
         "name" : "Option 1 Name",
         "result" : {
            "completed_at" : "20200703T193034Z",
            "measure_class_name" : "CondenserFanDegradation",
            "measure_display_name" : "Condenser Fan Degradation",
            "measure_name" : "condenser_fan_degradation",
            "measure_taxonomy" : "HVAC.Cooling",
            "measure_type" : "EnergyPlusMeasure",
            "measure_uid" : "78fd31ab-ff52-4260-b680-c2c75dfd31dc",
            "measure_version_id" : "4ee08575-e368-46d4-975c-6aef1fe4970d",
            "measure_version_modified" : "20200409T145323Z",
            "measure_xml_checksum" : "CBC45526",
            "started_at" : "20200703T193032Z",
            "stderr" : "",
            "stdout" : "[OpenStudio.Measure] <0> OSArgumentVector is deprecated, use OpenStudio::Measure::OSArgumentVector instead.\n[utilities.idf.Workspace] <-1> Resetting name of Object of type 'EnergyManagementSystem:ProgramCallingManager' and named 'EMSCallDXCoolingCoilDegradationTwoStageDXCoilWithHumidityControlEIR' to avoid name conflict upon adding it to the Workspace.\n[utilities.idf.Workspace] <-1> Resetting name of Object of type 'EnergyManagementSystem:OutputVariable' and named 'EIRCurveValueTwoStageDXCoilWithHumidityControl' to avoid name conflict upon adding it to the Workspace.\n[utilities.idf.Workspace] <-1> Resetting name of Object of type 'EnergyManagementSystem:ProgramCallingManager' and named 'EMSCallDXCoolingCoilDegradationTwoStageDXCoilWithHumidityControlEIR' to avoid name conflict upon adding it to the Workspace.\n[utilities.idf.Workspace] <-1> Resetting name of Object of type 'EnergyManagementSystem:OutputVariable' and named 'EIRCurveValueTwoStageDXCoilWithHumidityControl' to avoid name conflict upon adding it to the Workspace.\n[utilities.idf.Workspace] <-1> Resetting name of Object of type 'EnergyManagementSystem:ProgramCallingManager' and named 'EMSCallDXCoolingCoilDegradationTwoStageDXCoilWithHumidityControlEIR' to avoid name conflict upon adding it to the Workspace.\n[utilities.idf.Workspace] <-1> Resetting name of Object of type 'EnergyManagementSystem:OutputVariable' and named 'EIRCurveValueTwoStageDXCoilWithHumidityControl' to avoid name conflict upon adding it to the Workspace.\n",
            "step_errors" : [],
            "step_files" : [
               "C:/Users/JKIM4/Documents/GitHub/AFDD-FaultModelParametric/temp_data/analysis_f451ead3-737c-4d95-90b0-9630641c087f/data_point_5ae92b00-0695-44de-a21f-7198c12872af/run/018_CondenserFanDegradation/dd_sim.idf"
            ],
            "step_final_condition" : "Imposed performance degradation on Two Stage DX Coil With Humidity Control.",
            "step_info" : [
               "Simulation Timestep = 0.16666666666666666",
               "Found two stage coil named Two Stage DX Coil With Humidity Control",
               "energyplus -w C:/Users/JKIM4/Documents/GitHub/AFDD-FaultModelParametric/temp_data/analysis_f451ead3-737c-4d95-90b0-9630641c087f/data_point_5ae92b00-0695-44de-a21f-7198c12872af/run/in.epw -D dd_sim.idf"
            ],
            "step_initial_condition" : "Imposing performance degradation on Two Stage DX Coil With Humidity Control.",
            "step_result" : "Success",
            "step_values" : [
               {
                  "name" : "coil_choice",
                  "value" : "* ALL Coil Selected *"
               },
               {
                  "name" : "fault_lvl",
                  "value" : 0.5
               },
               {
                  "name" : "fan_power_ratio",
                  "value" : 0.091747080999999994
               },
               {
                  "name" : "time_constant",
                  "value" : 0
               },
               {
                  "name" : "start_month",
                  "value" : 1
               },
               {
                  "name" : "start_date",
                  "value" : 1
               },
               {
                  "name" : "start_time",
                  "value" : 0
               },
               {
                  "name" : "end_month",
                  "value" : 12
               },
               {
                  "name" : "end_date",
                  "value" : 31
               },
               {
                  "name" : "end_time",
                  "value" : 23
               }
            ],
            "step_warnings" : []
         }
      },
      {
         "arguments" : {
            "EIR_CAa1" : -5.9805999999999999,
            "EIR_CAa2" : 0.94789999999999996,
            "EIR_CAa3" : 4.3815999999999997,
            "EIR_CAa4" : -1.0667,
            "EIR_CAa5" : 2.9142000000000001,
            "EIR_CAa6" : 0.090476000000000001,
            "Q_CAa1" : -2.2162000000000002,
            "Q_CAa2" : 5.6315,
            "Q_CAa3" : -3.1198999999999999,
            "Q_CAa4" : 0.22492000000000001,
            "Q_CAa5" : -0.76244999999999996,
            "Q_CAa6" : -0.072843000000000005,
            "__SKIP__" : true,
            "bf_para" : 0,
            "coil_choice" : "* ALL Coil Selected *",
            "end_date" : 31,
            "end_month" : 12,
            "end_time" : 23,
            "fault_lvl" : 0.10000000000000001,
            "max_cond_tmp_uc" : 46.100000000000001,
            "max_cop_uc" : 4.6900000000000004,
            "max_wb_tmp_uc" : 23.899999999999999,
            "min_cond_tmp_uc" : 18.300000000000001,
            "min_cop_uc" : 3.7400000000000002,
            "min_fl" : 0.5,
            "min_wb_tmp_uc" : 12.800000000000001,
            "q_rat" : -1,
            "shr_rat" : -1,
            "start_date" : 1,
            "start_month" : 1,
            "start_time" : 0,
            "time_constant" : 0,
            "vol_rat" : -1
         },
         "description" : "Condenser fouling occurs when litter, dirt, or dust accumulates on or between the fins of a condenser of an air conditioner located in the outdoor environment. The blockage reduces the airflow across the condenser and increases the condensing temperature in the refrigerant circuit. The elevated temperature increases the pressure difference across the compressor and reduces the equipment efficiency. This fault is categorized as a fault that occur in the vapor compression system during the operation stage. This fault measure is based on an empirical model and simulates condenser fouling by modifying the Coil:Cooling:DX:SingleSpeed or Coil:Cooling:DX:TwoStageWithHumiditycontrolmodes object in EnergyPlus assigned to the heating and cooling system. The fault intensity (F) for this fault is defined as the ratio of reduction in condenser coil airflow at full load with the application range of 0 to 0.5 (50% reduction).",
         "measure_dir_name" : "CondenserFouling",
         "name" : "condenser_fouling",
         "result" : {
            "completed_at" : "20200703T193035Z",
            "measure_class_name" : "CondenserFouling",
            "measure_display_name" : "Condenser Fouling",
            "measure_name" : "condenser_fouling",
            "measure_taxonomy" : "HVAC.Cooling",
            "measure_type" : "EnergyPlusMeasure",
            "measure_uid" : "7fac3cb7-ed23-454d-ac24-b037d2c8faa4",
            "measure_version_id" : "44b048f2-499f-4a0e-bea4-39e89f873181",
            "measure_version_modified" : "20200409T145323Z",
            "measure_xml_checksum" : "CBC45526",
            "started_at" : "20200703T193035Z",
            "stderr" : "",
            "stdout" : "",
            "step_errors" : [],
            "step_files" : [],
            "step_info" : [],
            "step_result" : "Skip",
            "step_values" : [],
            "step_warnings" : []
         }
      },
      {
         "arguments" : {
            "EIR_EFa1" : 1.0759970000000001,
            "EIR_EFa2" : -1.6097109999999999,
            "EIR_EFa3" : 0.054396,
            "EIR_EFa4" : -1.58432,
            "EIR_EFa5" : 0.80322499999999997,
            "EIR_EFa6" : 0.356159,
            "Q_EFa1" : -1.6808559999999999,
            "Q_EFa2" : 1.955241,
            "Q_EFa3" : 0.013734,
            "Q_EFa4" : 1.9444980000000001,
            "Q_EFa5" : -0.95820300000000003,
            "Q_EFa6" : -0.36740600000000001,
            "__SKIP__" : true,
            "bf_para" : -1.3899999999999999,
            "coil_choice" : "* ALL Coil Selected *",
            "end_date" : 31,
            "end_month" : 12,
            "end_time" : 23,
            "fault_lvl" : 0.10000000000000001,
            "max_cond_tmp_uc" : 46.100000000000001,
            "max_cop_uc" : 4.6900000000000004,
            "max_wb_tmp_uc" : 23.899999999999999,
            "min_cond_tmp_uc" : 18.300000000000001,
            "min_cop_uc" : 3.7400000000000002,
            "min_fl" : 0.5,
            "min_wb_tmp_uc" : 12.800000000000001,
            "q_rat" : -1,
            "shr_rat" : -1,
            "start_date" : 1,
            "start_month" : 1,
            "start_time" : 0,
            "time_constant" : 0,
            "vol_rat" : -1
         },
         "description" : "Evaporator fouling occurs when the filter upstream of a cooling/evaporator coil is fouled. This fault decreases the evaporator saturation temperature, which decreases overall cooling capacity, sensible heat ratio (SHR), and coefficient of performance. The lower SHR leads to an increased latent load to meet a particular sensible load. This fault is categorized as a fault that occur in the vapor compression system during the operation stage. This fault measure is based on an empirical model and simulates evaporator fouling by modifying the Coil:Cooling:DX:SingleSpeed or Coil:Cooling:DX:TwoStageWithHumiditycontrolmodes object in EnergyPlus assigned to the heating and cooling system. F is the fault intensity defined as the reduction in evaporator coil airflow at full load condition as a ratio of the design airflow rate with the application range of 0 to 0.5 (50% reduction).",
         "measure_dir_name" : "EvaporatorFouling",
         "name" : "evaporator_fouling",
         "result" : {
            "completed_at" : "20200703T193036Z",
            "measure_class_name" : "EvaporatorFouling",
            "measure_display_name" : "Evaporator Fouling",
            "measure_name" : "evaporator_fouling",
            "measure_taxonomy" : "HVAC.Cooling",
            "measure_type" : "EnergyPlusMeasure",
            "measure_uid" : "af77eb6c-c4c6-4990-bc8b-af916215b967",
            "measure_version_id" : "6a3adcb1-7e1a-4bc4-b96e-853c0f20a03c",
            "measure_version_modified" : "20200409T145323Z",
            "measure_xml_checksum" : "CBC45526",
            "started_at" : "20200703T193036Z",
            "stderr" : "",
            "stdout" : "",
            "step_errors" : [],
            "step_files" : [],
            "step_info" : [],
            "step_result" : "Skip",
            "step_values" : [],
            "step_warnings" : []
         }
      },
      {
         "arguments" : {
            "EIR_LLa1" : 1.4031,
            "EIR_LLa2" : 3.7921999999999998,
            "EIR_LLa3" : -5.343,
            "EIR_LLa4" : 3.0228999999999999,
            "EIR_LLa5" : 1.6979,
            "EIR_LLa6" : 0.12159,
            "Q_LLa1" : -1.0205,
            "Q_LLa2" : -3.2898999999999998,
            "Q_LLa3" : 3.6600000000000001,
            "Q_LLa4" : -1.9117999999999999,
            "Q_LLa5" : 0.031398000000000002,
            "Q_LLa6" : 0.064408999999999994,
            "__SKIP__" : true,
            "bf_para" : -1.3200000000000001,
            "coil_choice" : "* ALL Coil Selected *",
            "end_date" : 31,
            "end_month" : 12,
            "end_time" : 23,
            "fault_lvl" : 0.10000000000000001,
            "max_cond_tmp_uc" : 46.100000000000001,
            "max_cop_uc" : 4.6900000000000004,
            "max_wb_tmp_uc" : 23.899999999999999,
            "min_cond_tmp_uc" : 18.300000000000001,
            "min_cop_uc" : 3.7400000000000002,
            "min_fl" : 0.25,
            "min_wb_tmp_uc" : 12.800000000000001,
            "q_rat" : -1,
            "shr_rat" : -1,
            "start_date" : 1,
            "start_month" : 1,
            "start_time" : 0,
            "time_constant" : 0,
            "vol_rat" : -1
         },
         "description" : "A liquid-line restriction fault occurs when particles accumulate within the refrigerant filter located between the condenser and the expansion valve in the refrigerant circuit of a vapor compression cycle. The accumulation increases the flow resistance of the refrigerant circuit and the pressure difference across the compressor. It also reduces the evaporating temperature and leads to lower cooling capacity, efficiency, and SHR. The lower SHR leads to increased latent load to meet a particular sensible load. This fault is categorized as a fault that occur in the vapor compression system during the operation stage. This fault measure is based on an empirical model and simulates a liquid-line restriction by modifying the Coil:Cooling:DX:SingleSpeed or Coil:Cooling:DX:TwoStageWithHumiditycontrolmodes objects in EnergyPlus assigned to the heating and cooling system. The fault intensity (F) is defined as the ratio of increase in the pressure difference between the condenser outlet and evaporator inlet due to the restriction with the application range of 0 to 0.3 (30% increase).",
         "measure_dir_name" : "LiquidLineRestriction",
         "name" : "liquid_line_restriction",
         "result" : {
            "completed_at" : "20200703T193037Z",
            "measure_class_name" : "LiquidLineRestriction",
            "measure_display_name" : "Liquid-Line Restriction",
            "measure_name" : "liquid_line_restriction",
            "measure_taxonomy" : "HVAC.Cooling",
            "measure_type" : "EnergyPlusMeasure",
            "measure_uid" : "7b7c155e-f73d-4805-a285-7750c5c356ae",
            "measure_version_id" : "fe352a63-946c-4ea2-86d7-6871fbe956be",
            "measure_version_modified" : "20200409T145324Z",
            "measure_xml_checksum" : "CBC45526",
            "started_at" : "20200703T193037Z",
            "stderr" : "",
            "stdout" : "",
            "step_errors" : [],
            "step_files" : [],
            "step_info" : [],
            "step_result" : "Skip",
            "step_values" : [],
            "step_warnings" : []
         }
      },
      {
         "arguments" : {
            "EIR_CH for overchargea1" : 0.191888,
            "EIR_CH for overchargea2" : -0.25673200000000002,
            "EIR_CH for overchargea3" : -0.053159999999999999,
            "EIR_CH for overchargea4" : -0.71668100000000001,
            "EIR_CH for overchargea5" : 0.38122400000000001,
            "EIR_CH for overchargea6" : 0.1241,
            "EIR_CH for underchargea1" : -5.7419000000000002,
            "EIR_CH for underchargea2" : 8.6708999999999996,
            "EIR_CH for underchargea3" : -4.4104000000000001,
            "EIR_CH for underchargea4" : 1.2488999999999999,
            "EIR_CH for underchargea5" : 1.2095,
            "EIR_CH for underchargea6" : 0.36051,
            "Q_CH for overchargea1" : -0.66735100000000003,
            "Q_CH for overchargea2" : 0.41738599999999998,
            "Q_CH for overchargea3" : 0.091731999999999994,
            "Q_CH for overchargea4" : 0.81263700000000005,
            "Q_CH for overchargea5" : -0.30102000000000001,
            "Q_CH for overchargea6" : -0.1014,
            "Q_CH for underchargea1" : 7.7179000000000002,
            "Q_CH for underchargea2" : -10.765000000000001,
            "Q_CH for underchargea3" : 3.129,
            "Q_CH for underchargea4" : -0.88402999999999998,
            "Q_CH for underchargea5" : 0.30042999999999997,
            "Q_CH for underchargea6" : -0.036992999999999998,
            "__SKIP__" : true,
            "bf_para" : -1.3899999999999999,
            "coil_choice" : "* ALL Coil Selected *",
            "end_date" : 31,
            "end_month" : 12,
            "end_time" : 23,
            "fault_lvl" : -0.10000000000000001,
            "max_cond_tmp_uc" : 46.100000000000001,
            "max_cop_uc" : 4.6900000000000004,
            "max_wb_tmp_uc" : 23.899999999999999,
            "min_cond_tmp_uc" : 18.300000000000001,
            "min_cop_uc" : 3.7400000000000002,
            "min_fl" : 0.29999999999999999,
            "min_wb_tmp_uc" : 12.800000000000001,
            "q_rat" : -1,
            "shr_rat" : -1,
            "start_date" : 1,
            "start_month" : 1,
            "start_time" : 0,
            "time_constant" : 0,
            "vol_rat" : -1
         },
         "description" : "Forty four user inputs (DX coil where the fault occurs / Percentage reduction of refrigerant charge level / rated cooling capacity / rated sensible heat ratio / rated volumetric flow rate / maximum fault intensity / undercharge and overcharge empirical model coefficients / minimum-maximum evaporator air inlet wet-bulb temperature / minimum-maximum condenser air inlet dry-bulb temperature / minimum/maximum rated COP / percentage change of UA with increase of fault level / time required for fault to reach full level / fault starting month / fault starting date / fault starting time / fault ending month / fault ending date / fault ending time) can be defined or remained with default values. Based on user inputs, the cooling capacity (Q ╠ç_cool) and EIR in the DX cooling coil model is recalculated to reflect the faulted operation. The time required for the fault to reach the full level is only required when the user wants to model fault evolution. If the fault evolution is not necessary for the user, it can be defined as zero and F will be imposed as a step function with the user defined value. However, by defining the time required for the fault to reach the full level, fault starting month/date/time and fault ending month/date/time, the adjustment factor AF is calculated at each time step starting from the starting month/date/time to gradually impose F based on the user specified time frame. AF is calculated as follows, AF_current = AF_previous + dt/tau where AF_current is the adjustment factor calculated based on the previously calculated adjustment factor (AF_previous), simulation timestep (dt) and the time required for the fault to reach the full level (tau).",
         "measure_dir_name" : "NonStandardCharging",
         "name" : "non_standard_charging",
         "result" : {
            "completed_at" : "20200703T193038Z",
            "measure_class_name" : "NonStandardCharging",
            "measure_display_name" : "Nonstandard Charging",
            "measure_name" : "non_standard_charging",
            "measure_taxonomy" : "HVAC.Cooling",
            "measure_type" : "EnergyPlusMeasure",
            "measure_uid" : "6508b8fd-3c8e-43cd-a7a8-59b5cb038903",
            "measure_version_id" : "2d7c0e9e-c9d6-451b-8d9e-5cf9525b908e",
            "measure_version_modified" : "20200409T145324Z",
            "measure_xml_checksum" : "CBC45526",
            "started_at" : "20200703T193038Z",
            "stderr" : "",
            "stdout" : "",
            "step_errors" : [],
            "step_files" : [],
            "step_info" : [],
            "step_result" : "Skip",
            "step_values" : [],
            "step_warnings" : []
         }
      },
      {
         "arguments" : {
            "EIR_NCa1" : 2.4647999999999999,
            "EIR_NCa2" : -3.1898,
            "EIR_NCa3" : 1.0582,
            "EIR_NCa4" : 0.040315999999999998,
[...]
                  "name" : "fuel_oil_2_cooling_ip",
                  "units" : "MBtu",
                  "value" : 0
               },
               {
                  "name" : "fuel_oil_2_interior_lighting_ip",
                  "units" : "MBtu",
                  "value" : 0
               },
               {
                  "name" : "fuel_oil_2_exterior_lighting_ip",
                  "units" : "MBtu",
                  "value" : 0
               },
               {
                  "name" : "fuel_oil_2_interior_equipment_ip",
                  "units" : "MBtu",
                  "value" : 0
               },
               {
                  "name" : "fuel_oil_2_exterior_equipment_ip",
                  "units" : "MBtu",
                  "value" : 0
               },
               {
                  "name" : "fuel_oil_2_fans_ip",
                  "units" : "MBtu",
                  "value" : 0
               },
               {
                  "name" : "fuel_oil_2_pumps_ip",
                  "units" : "MBtu",
                  "value" : 0
               },
               {
                  "name" : "fuel_oil_2_heat_rejection_ip",
                  "units" : "MBtu",
                  "value" : 0
               },
               {
                  "name" : "fuel_oil_2_humidification_ip",
                  "units" : "MBtu",
                  "value" : 0
               },
               {
                  "name" : "fuel_oil_2_heat_recovery_ip",
                  "units" : "MBtu",
                  "value" : 0
               },
               {
                  "name" : "fuel_oil_2_water_systems_ip",
                  "units" : "MBtu",
                  "value" : 0
               },
               {
                  "name" : "fuel_oil_2_refrigeration_ip",
                  "units" : "MBtu",
                  "value" : 0
               },
               {
                  "name" : "fuel_oil_2_generators_ip",
                  "units" : "MBtu",
                  "value" : 0
               },
               {
                  "name" : "fuel_oil_2_ip",
                  "units" : "MBtu",
                  "value" : 0
               },
               {
                  "name" : "propane_gas_heating_ip",
                  "units" : "MBtu",
                  "value" : 0
               },
               {
                  "name" : "propane_gas_cooling_ip",
                  "units" : "MBtu",
                  "value" : 0
               },
               {
                  "name" : "propane_gas_interior_lighting_ip",
                  "units" : "MBtu",
                  "value" : 0
               },
               {
                  "name" : "propane_gas_exterior_lighting_ip",
                  "units" : "MBtu",
                  "value" : 0
               },
               {
                  "name" : "propane_gas_interior_equipment_ip",
                  "units" : "MBtu",
                  "value" : 0
               },
               {
                  "name" : "propane_gas_exterior_equipment_ip",
                  "units" : "MBtu",
                  "value" : 0
               },
               {
                  "name" : "propane_gas_fans_ip",
                  "units" : "MBtu",
                  "value" : 0
               },
               {
                  "name" : "propane_gas_pumps_ip",
                  "units" : "MBtu",
                  "value" : 0
               },
               {
                  "name" : "propane_gas_heat_rejection_ip",
                  "units" : "MBtu",
                  "value" : 0
               },
               {
                  "name" : "propane_gas_humidification_ip",
                  "units" : "MBtu",
                  "value" : 0
               },
               {
                  "name" : "propane_gas_heat_recovery_ip",
                  "units" : "MBtu",
                  "value" : 0
               },
               {
                  "name" : "propane_gas_water_systems_ip",
                  "units" : "MBtu",
                  "value" : 0
               },
               {
                  "name" : "propane_gas_refrigeration_ip",
                  "units" : "MBtu",
                  "value" : 0
               },
               {
                  "name" : "propane_gas_generators_ip",
                  "units" : "MBtu",
                  "value" : 0
               },
               {
                  "name" : "propane_gas_ip",
                  "units" : "MBtu",
                  "value" : 0
               },
               {
                  "name" : "coal_heating_ip",
                  "units" : "MBtu",
                  "value" : 0
               },
               {
                  "name" : "coal_cooling_ip",
                  "units" : "MBtu",
                  "value" : 0
               },
               {
                  "name" : "coal_interior_lighting_ip",
                  "units" : "MBtu",
                  "value" : 0
               },
               {
                  "name" : "coal_exterior_lighting_ip",
                  "units" : "MBtu",
                  "value" : 0
               },
               {
                  "name" : "coal_interior_equipment_ip",
                  "units" : "MBtu",
                  "value" : 0
               },
               {
                  "name" : "coal_exterior_equipment_ip",
                  "units" : "MBtu",
                  "value" : 0
               },
               {
                  "name" : "coal_fans_ip",
                  "units" : "MBtu",
                  "value" : 0
               },
               {
                  "name" : "coal_pumps_ip",
                  "units" : "MBtu",
                  "value" : 0
               },
               {
                  "name" : "coal_heat_rejection_ip",
                  "units" : "MBtu",
                  "value" : 0
               },
               {
                  "name" : "coal_humidification_ip",
                  "units" : "MBtu",
                  "value" : 0
               },
               {
                  "name" : "coal_heat_recovery_ip",
                  "units" : "MBtu",
                  "value" : 0
               },
               {
                  "name" : "coal_water_systems_ip",
                  "units" : "MBtu",
                  "value" : 0
               },
               {
                  "name" : "coal_refrigeration_ip",
                  "units" : "MBtu",
                  "value" : 0
               },
               {
                  "name" : "coal_generators_ip",
                  "units" : "MBtu",
                  "value" : 0
               },
               {
                  "name" : "coal_ip",
                  "units" : "MBtu",
                  "value" : 0
               },
               {
                  "name" : "diesel_heating_ip",
                  "units" : "MBtu",
                  "value" : 0
               },
               {
                  "name" : "diesel_cooling_ip",
                  "units" : "MBtu",
                  "value" : 0
               },
               {
                  "name" : "diesel_interior_lighting_ip",
                  "units" : "MBtu",
                  "value" : 0
               },
               {
                  "name" : "diesel_exterior_lighting_ip",
                  "units" : "MBtu",
                  "value" : 0
               },
               {
                  "name" : "diesel_interior_equipment_ip",
                  "units" : "MBtu",
                  "value" : 0
               },
               {
                  "name" : "diesel_exterior_equipment_ip",
                  "units" : "MBtu",
                  "value" : 0
               },
               {
                  "name" : "diesel_fans_ip",
                  "units" : "MBtu",
                  "value" : 0
               },
               {
                  "name" : "diesel_pumps_ip",
                  "units" : "MBtu",
                  "value" : 0
               },
               {
                  "name" : "diesel_heat_rejection_ip",
                  "units" : "MBtu",
                  "value" : 0
               },
               {
                  "name" : "diesel_humidification_ip",
                  "units" : "MBtu",
                  "value" : 0
               },
               {
                  "name" : "diesel_heat_recovery_ip",
                  "units" : "MBtu",
                  "value" : 0
               },
               {
                  "name" : "diesel_water_systems_ip",
                  "units" : "MBtu",
                  "value" : 0
               },
               {
                  "name" : "diesel_refrigeration_ip",
                  "units" : "MBtu",
                  "value" : 0
               },
               {
                  "name" : "diesel_generators_ip",
                  "units" : "MBtu",
                  "value" : 0
               },
               {
                  "name" : "diesel_ip",
                  "units" : "MBtu",
                  "value" : 0
               },
               {
                  "name" : "gasoline_heating_ip",
                  "units" : "MBtu",
                  "value" : 0
               },
               {
                  "name" : "gasoline_cooling_ip",
                  "units" : "MBtu",
                  "value" : 0
               },
               {
                  "name" : "gasoline_interior_lighting_ip",
                  "units" : "MBtu",
                  "value" : 0
               },
               {
                  "name" : "gasoline_exterior_lighting_ip",
                  "units" : "MBtu",
                  "value" : 0
               },
               {
                  "name" : "gasoline_interior_equipment_ip",
                  "units" : "MBtu",
                  "value" : 0
               },
               {
                  "name" : "gasoline_exterior_equipment_ip",
                  "units" : "MBtu",
                  "value" : 0
               },
               {
                  "name" : "gasoline_fans_ip",
                  "units" : "MBtu",
                  "value" : 0
               },
               {
                  "name" : "gasoline_pumps_ip",
                  "units" : "MBtu",
                  "value" : 0
               },
               {
                  "name" : "gasoline_heat_rejection_ip",
                  "units" : "MBtu",
                  "value" : 0
               },
               {
                  "name" : "gasoline_humidification_ip",
                  "units" : "MBtu",
                  "value" : 0
               },
               {
                  "name" : "gasoline_heat_recovery_ip",
                  "units" : "MBtu",
                  "value" : 0
               },
               {
                  "name" : "gasoline_water_systems_ip",
                  "units" : "MBtu",
                  "value" : 0
               },
               {
                  "name" : "gasoline_refrigeration_ip",
                  "units" : "MBtu",
                  "value" : 0
               },
               {
                  "name" : "gasoline_generators_ip",
                  "units" : "MBtu",
                  "value" : 0
               },
               {
                  "name" : "gasoline_ip",
                  "units" : "MBtu",
                  "value" : 0
               },
               {
                  "name" : "other_fuel_1_heating_ip",
                  "units" : "MBtu",
                  "value" : 0
               },
               {
                  "name" : "other_fuel_1_cooling_ip",
                  "units" : "MBtu",
                  "value" : 0
               },
               {
                  "name" : "other_fuel_1_interior_lighting_ip",
                  "units" : "MBtu",
                  "value" : 0
               },
               {
                  "name" : "other_fuel_1_exterior_lighting_ip",
                  "units" : "MBtu",
                  "value" : 0
               },
               {
                  "name" : "other_fuel_1_interior_equipment_ip",
                  "units" : "MBtu",
                  "value" : 0
               },
               {
                  "name" : "other_fuel_1_exterior_equipment_ip",
                  "units" : "MBtu",
                  "value" : 0
               },
               {
                  "name" : "other_fuel_1_fans_ip",
                  "units" : "MBtu",
                  "value" : 0
               },
               {
                  "name" : "other_fuel_1_pumps_ip",
                  "units" : "MBtu",
                  "value" : 0
               },
               {
                  "name" : "other_fuel_1_heat_rejection_ip",
                  "units" : "MBtu",
                  "value" : 0
               },
               {
                  "name" : "other_fuel_1_humidification_ip",
                  "units" : "MBtu",
                  "value" : 0
               },
               {
                  "name" : "other_fuel_1_heat_recovery_ip",
                  "units" : "MBtu",
                  "value" : 0
               },
               {
                  "name" : "other_fuel_1_water_systems_ip",
                  "units" : "MBtu",
                  "value" : 0
               },
               {
                  "name" : "other_fuel_1_refrigeration_ip",
                  "units" : "MBtu",
                  "value" : 0
               },
               {
                  "name" : "other_fuel_1_generators_ip",
                  "units" : "MBtu",
                  "value" : 0
               },
               {
                  "name" : "other_fuel_1_ip",
                  "units" : "MBtu",
                  "value" : 0
               },
               {
                  "name" : "other_fuel_2_heating_ip",
                  "units" : "MBtu",
                  "value" : 0
               },
               {
                  "name" : "other_fuel_2_cooling_ip",
                  "units" : "MBtu",
                  "value" : 0
               },
               {
                  "name" : "other_fuel_2_interior_lighting_ip",
                  "units" : "MBtu",
                  "value" : 0
               },
               {
                  "name" : "other_fuel_2_exterior_lighting_ip",
                  "units" : "MBtu",
                  "value" : 0
               },
               {
                  "name" : "other_fuel_2_interior_equipment_ip",
                  "units" : "MBtu",
                  "value" : 0
               },
               {
                  "name" : "other_fuel_2_exterior_equipment_ip",
                  "units" : "MBtu",
                  "value" : 0
               },
               {
                  "name" : "other_fuel_2_fans_ip",
                  "units" : "MBtu",
                  "value" : 0
               },
               {
                  "name" : "other_fuel_2_pumps_ip",
                  "units" : "MBtu",
                  "value" : 0
               },
               {
                  "name" : "other_fuel_2_heat_rejection_ip",
                  "units" : "MBtu",
                  "value" : 0
               },
               {
                  "name" : "other_fuel_2_humidification_ip",
                  "units" : "MBtu",
                  "value" : 0
               },
               {
                  "name" : "other_fuel_2_heat_recovery_ip",
                  "units" : "MBtu",
                  "value" : 0
               },
               {
                  "name" : "other_fuel_2_water_systems_ip",
                  "units" : "MBtu",
                  "value" : 0
               },
               {
                  "name" : "other_fuel_2_refrigeration_ip",
                  "units" : "MBtu",
                  "value" : 0
               },
               {
                  "name" : "other_fuel_2_generators_ip",
                  "units" : "MBtu",
                  "value" : 0
               },
               {
                  "name" : "other_fuel_2_ip",
                  "units" : "MBtu",
                  "value" : 0
               },
               {
                  "name" : "typical_iead_roof_r_20_83",
                  "units" : "ft^2",
                  "value" : 6445.0170971784082
               },
               {
                  "name" : "typical_insulated_exterior_mass_floor_r_13_51",
                  "units" : "ft^2",
                  "value" : 611.60538987744542
               },
               {
                  "name" : "typical_insulated_exterior_mass_wall_r_11_11",
                  "units" : "ft^2",
                  "value" : 2387.7731019350927
               },
               {
                  "name" : "u_0_52_shgc_0_40_dbl_ref_d_clr_6_mm_13_mm_air",
                  "units" : "ft^2",
                  "value" : 5.1819829263359996
               },
               {
                  "name" : "u_0_72_shgc_0_25_sgl_ref_b_m_tint_6_mm",
                  "units" : "ft^2",
                  "value" : 0.36280680986880004
               },
               {
                  "name" : "gross_window_wall_ratio",
                  "units" : "%",
                  "value" : 21.199999999999999
               },
               {
                  "name" : "gross_window_wall_ratio_conditioned",
                  "units" : "%",
                  "value" : 21.199999999999999
               },
               {
                  "name" : "skylight_roof_ratio",
                  "units" : "%",
                  "value" : 0
               },
               {
                  "name" : "space_type_office_attic_90_1_2010",
                  "units" : "ft^2",
                  "value" : 0
               },
               {
                  "name" : "space_type_office_whole_building_sm_office_90_1_2010",
                  "units" : "ft^2",
                  "value" : 5502.0524624382588
               },
               {
                  "name" : "office_whole_building_sm_office_90_1_2010_service_water_use_0_05_gpm_at_140_f",
                  "units" : "gal/min",
                  "value" : 0.050000476753570292
               },
               {
                  "name" : "zone_max_hours_over_70_rh",
                  "units" : "hr",
                  "value" : 718
               },
               {
                  "name" : "zone_max_hours_over_55_rh",
                  "units" : "hr",
                  "value" : 2618
               },
               {
                  "name" : "num_zones_x_hours_over_70",
                  "units" : "zones",
                  "value" : 5
               },
               {
                  "name" : "num_zones_x_hours_over_55",
                  "units" : "zones",
                  "value" : 5
               },
               {
                  "name" : "inflation_approach",
                  "value" : "Constant Dollar"
               },
               {
                  "name" : "analysis_length",
                  "units" : "yrs",
                  "value" : 25
               },
               {
                  "name" : "annual_peak_electric_demand",
                  "units" : "kW",
                  "value" : 12.964680000000001
               },
               {
                  "name" : "first_year_capital_cost",
                  "units" : "$",
                  "value" : 0
               },
               {
                  "name" : "annual_utility_cost",
                  "units" : "$",
                  "value" : 0
               },
               {
                  "name" : "total_lifecycle_cost",
                  "units" : "$",
                  "value" : 0
               }
            ],
            "step_warnings" : []
         }
      }
   ],
   "updated_at" : "20200703T193536Z",
   "weather_file" : "USA_IL_Chicago-OHare.Intl.AP.725300_TMY3.epw"
}
